7IZ - Ideal conformer


 37 42  0  0  0  0  0  0  0  0999 V2000
   -4.6887   12.5931   27.1162 C   0  0  0  0  0  0  0  0  0  0  0  0
   -3.5040   11.8132   27.1171 C   0  0  0  0  0  0  0  0  0  0  0  0
   -2.4458   13.4701   28.3199 C   0  0  0  0  0  0  0  0  0  0  0  0
   -4.6639   13.8496   27.7678 C   0  0  0  0  0  0  0  0  0  0  0  0
   -5.8288   12.1000   26.4740 C   0  0  0  0  0  0  0  0  0  0  0  0
   -4.7075   10.1595   25.8655 C   0  0  0  0  0  0  0  0  0  0  0  0
   -3.5270   10.5668   26.4714 C   0  0  0  0  0  0  0  0  0  0  0  0
   -2.4304    9.7780   26.4502 F   0  0  0  0  0  0  0  0  0  0  0  0
   -2.4133   12.2919   27.7287 N   0  0  0  0  0  0  0  0  0  0  0  0
   -3.5330   14.2334   28.3443 N   0  0  0  0  0  0  0  0  0  0  0  0
   -5.7978   10.9302   25.8790 N   0  0  0  0  0  0  0  0  0  0  0  0
   -4.4304    7.4939   23.2190 C   0  0  0  0  0  0  0  0  0  0  0  0
   -4.8417    6.3722   23.8748 C   0  0  0  0  0  0  0  0  0  0  0  0
   -5.2296    6.4472   25.2231 C   0  0  0  0  0  0  0  0  0  0  0  0
   -5.1895    7.6944   25.8922 C   0  0  0  0  0  0  0  0  0  0  0  0
   -4.7582    8.8444   25.1894 C   0  0  0  0  0  0  0  0  0  0  0  0
   -4.3856    8.7260   23.8612 C   0  0  0  0  0  0  0  0  0  0  0  0
   -5.5771    7.7675   27.2390 C   0  0  0  0  0  0  0  0  0  0  0  0
   -5.6577    5.3049   25.9215 C   0  0  0  0  0  0  0  0  0  0  0  0
   -6.0270    5.4116   27.2274 C   0  0  0  0  0  0  0  0  0  0  0  0
   -5.9881    6.6395   27.8851 C   0  0  0  0  0  0  0  0  0  0  0  0
   -5.5349    9.2869   28.0778 Cl  0  0  0  0  0  0  0  0  0  0  0  0
   -6.0989   15.0593   29.1766 C   0  0  0  0  0  0  0  0  0  0  0  0
   -7.3896   15.8813   29.1794 C   0  0  0  0  0  0  0  0  0  0  0  0
   -6.9068   16.6482   26.9350 C   0  0  0  0  0  0  0  0  0  0  0  0
   -5.6152   15.8257   26.9322 C   0  0  0  0  0  0  0  0  0  0  0  0
   -5.7834   14.6514   27.8006 N   0  0  0  0  0  0  0  0  0  0  0  0
   -7.2226   17.0556   28.3118 N   0  0  0  0  0  0  0  0  0  0  0  0
   -8.0422   17.6433   28.3363 H   0  0  0  0  0  0  0  0  0  0  0  0
   -1.3240   13.9214   28.9284 O   0  0  0  0  0  0  0  0  0  0  0  0
   -1.4043   15.1930   29.5755 C   0  0  0  0  0  0  0  0  0  0  0  0
   -0.3293   16.1225   29.0094 C   0  0  0  0  0  0  0  0  0  0  0  0
    1.7364   17.0501   29.7966 C   0  0  0  0  0  0  0  0  0  0  0  0
    0.8281   15.2976   28.3934 C   0  0  0  0  0  0  0  0  0  0  0  0
   -0.3438   18.2159   30.2422 C   0  0  0  0  0  0  0  0  0  0  0  0
    2.0069   16.3029   28.4738 C   0  0  0  0  0  0  0  0  0  0  0  0
    0.2994   16.9037   30.0956 N   0  0  0  0  0  0  0  0  0  0  0  0
 12 17  2  0  0  0
 12 13  1  0  0  0
 17 16  1  0  0  0
 13 14  2  0  0  0
 16  6  1  0  0  0
 16 15  2  0  0  0
 11  5  2  0  0  0
 11  6  1  0  0  0
  5  1  1  0  0  0
  6  7  2  0  0  0
 14 15  1  0  0  0
 14 19  1  0  0  0
 35 37  1  0  0  0
 15 18  1  0  0  0
  7  8  1  0  0  0
  7  2  1  0  0  0
  1  2  2  0  0  0
  1  4  1  0  0  0
 24 28  1  0  0  0
 24 23  1  0  0  0
 26 27  1  0  0  0
 26 25  1  0  0  0
 27  4  1  0  0  0
 27 23  1  0  0  0
 19 20  2  0  0  0
  2  9  1  0  0  0
 37 33  1  0  0  0
 37 32  1  0  0  0
  4 10  2  0  0  0
 28 25  1  0  0  0
 33 36  1  0  0  0
  9  3  2  0  0  0
 10  3  1  0  0  0
  3 30  1  0  0  0
 18 22  1  0  0  0
 18 21  2  0  0  0
 20 21  1  0  0  0
 32 31  1  0  0  0
 32 34  1  0  0  0
 31 30  1  0  0  0
 36 34  1  0  0  0
 28 29  1  0  0  0
M  END
> <minimizedAffinity>
-7.64086

$$$$
7IZ - Ideal conformer


 37 42  0  0  0  0  0  0  0  0999 V2000
   -4.4531   13.1912   27.5592 C   0  0  0  0  0  0  0  0  0  0  0  0
   -3.3993   12.2749   27.8067 C   0  0  0  0  0  0  0  0  0  0  0  0
   -1.9946   14.0491   28.2435 C   0  0  0  0  0  0  0  0  0  0  0  0
   -4.1804   14.5749   27.6825 C   0  0  0  0  0  0  0  0  0  0  0  0
   -5.7129   12.7009   27.2014 C   0  0  0  0  0  0  0  0  0  0  0  0
   -4.9516   10.5106   27.3298 C   0  0  0  0  0  0  0  0  0  0  0  0
   -3.6683   10.9023   27.6849 C   0  0  0  0  0  0  0  0  0  0  0  0
   -2.7047    9.9848   27.9190 F   0  0  0  0  0  0  0  0  0  0  0  0
   -2.1935   12.7493   28.1439 N   0  0  0  0  0  0  0  0  0  0  0  0
   -2.9523   14.9428   28.0216 N   0  0  0  0  0  0  0  0  0  0  0  0
   -5.9125   11.4077   27.0950 N   0  0  0  0  0  0  0  0  0  0  0  0
   -6.0285    7.0054   28.1902 C   0  0  0  0  0  0  0  0  0  0  0  0
   -5.8566    6.3386   27.0142 C   0  0  0  0  0  0  0  0  0  0  0  0
   -5.3763    7.0190   25.8826 C   0  0  0  0  0  0  0  0  0  0  0  0
   -5.0735    8.3990   25.9747 C   0  0  0  0  0  0  0  0  0  0  0  0
   -5.2609    9.0690   27.2071 C   0  0  0  0  0  0  0  0  0  0  0  0
   -5.7355    8.3601   28.2976 C   0  0  0  0  0  0  0  0  0  0  0  0
   -4.5940    9.0771   24.8435 C   0  0  0  0  0  0  0  0  0  0  0  0
   -5.1903    6.3537   24.6583 C   0  0  0  0  0  0  0  0  0  0  0  0
   -4.7232    7.0421   23.5807 C   0  0  0  0  0  0  0  0  0  0  0  0
   -4.4245    8.4001   23.6723 C   0  0  0  0  0  0  0  0  0  0  0  0
   -4.2170   10.7693   24.9353 Cl  0  0  0  0  0  0  0  0  0  0  0  0
   -5.3024   16.4189   28.6033 C   0  0  0  0  0  0  0  0  0  0  0  0
   -6.4537   17.3932   28.3449 C   0  0  0  0  0  0  0  0  0  0  0  0
   -6.0478   17.2421   25.9635 C   0  0  0  0  0  0  0  0  0  0  0  0
   -4.8957   16.2672   26.2221 C   0  0  0  0  0  0  0  0  0  0  0  0
   -5.1634   15.5125   27.4551 N   0  0  0  0  0  0  0  0  0  0  0  0
   -6.1871   18.1484   27.1127 N   0  0  0  0  0  0  0  0  0  0  0  0
   -6.9067   18.8356   26.9465 H   0  0  0  0  0  0  0  0  0  0  0  0
   -0.7624   14.4919   28.5869 O   0  0  0  0  0  0  0  0  0  0  0  0
   -0.6983   15.5636   29.5302 C   0  0  0  0  0  0  0  0  0  0  0  0
    0.1037   16.7214   28.9335 C   0  0  0  0  0  0  0  0  0  0  0  0
    1.9939   18.0351   29.6037 C   0  0  0  0  0  0  0  0  0  0  0  0
    1.3467   16.1857   28.1801 C   0  0  0  0  0  0  0  0  0  0  0  0
   -0.2343   18.7144   30.2813 C   0  0  0  0  0  0  0  0  0  0  0  0
    2.2927   17.4145   28.2228 C   0  0  0  0  0  0  0  0  0  0  0  0
    0.6520   17.5754   30.0085 N   0  0  0  0  0  0  0  0  0  0  0  0
 12 17  2  0  0  0
 12 13  1  0  0  0
 17 16  1  0  0  0
 13 14  2  0  0  0
 16  6  1  0  0  0
 16 15  2  0  0  0
 11  5  2  0  0  0
 11  6  1  0  0  0
  5  1  1  0  0  0
  6  7  2  0  0  0
 14 15  1  0  0  0
 14 19  1  0  0  0
 35 37  1  0  0  0
 15 18  1  0  0  0
  7  8  1  0  0  0
  7  2  1  0  0  0
  1  2  2  0  0  0
  1  4  1  0  0  0
 24 28  1  0  0  0
 24 23  1  0  0  0
 26 27  1  0  0  0
 26 25  1  0  0  0
 27  4  1  0  0  0
 27 23  1  0  0  0
 19 20  2  0  0  0
  2  9  1  0  0  0
 37 33  1  0  0  0
 37 32  1  0  0  0
  4 10  2  0  0  0
 28 25  1  0  0  0
 33 36  1  0  0  0
  9  3  2  0  0  0
 10  3  1  0  0  0
  3 30  1  0  0  0
 18 22  1  0  0  0
 18 21  2  0  0  0
 20 21  1  0  0  0
 32 31  1  0  0  0
 32 34  1  0  0  0
 31 30  1  0  0  0
 36 34  1  0  0  0
 28 29  1  0  0  0
M  END
> <minimizedAffinity>
-7.45006

$$$$
7IZ - Ideal conformer


 37 42  0  0  0  0  0  0  0  0999 V2000
   -2.5429   -2.5935   34.1778 C   0  0  0  0  0  0  0  0  0  0  0  0
   -1.7865   -2.0501   33.1081 C   0  0  0  0  0  0  0  0  0  0  0  0
    0.0940   -2.1167   34.4389 C   0  0  0  0  0  0  0  0  0  0  0  0
   -1.8745   -2.8819   35.3919 C   0  0  0  0  0  0  0  0  0  0  0  0
   -3.9112   -2.8199   33.9990 C   0  0  0  0  0  0  0  0  0  0  0  0
   -3.8080   -2.0274   31.8185 C   0  0  0  0  0  0  0  0  0  0  0  0
   -2.4479   -1.7637   31.9033 C   0  0  0  0  0  0  0  0  0  0  0  0
   -1.7747   -1.2547   30.8482 F   0  0  0  0  0  0  0  0  0  0  0  0
   -0.4777   -1.8302   33.2857 N   0  0  0  0  0  0  0  0  0  0  0  0
   -0.5753   -2.6272   35.4668 N   0  0  0  0  0  0  0  0  0  0  0  0
   -4.4846   -2.5297   32.8543 N   0  0  0  0  0  0  0  0  0  0  0  0
   -5.7426   -0.2197   29.1398 C   0  0  0  0  0  0  0  0  0  0  0  0
   -5.8849   -1.1713   28.1747 C   0  0  0  0  0  0  0  0  0  0  0  0
   -5.3469   -2.4548   28.3667 C   0  0  0  0  0  0  0  0  0  0  0  0
   -4.6578   -2.7500   29.5679 C   0  0  0  0  0  0  0  0  0  0  0  0
   -4.5231   -1.7445   30.5546 C   0  0  0  0  0  0  0  0  0  0  0  0
   -5.0694   -0.4932   30.3249 C   0  0  0  0  0  0  0  0  0  0  0  0
   -4.1209   -4.0325   29.7580 C   0  0  0  0  0  0  0  0  0  0  0  0
   -5.4804   -3.4537   27.3866 C   0  0  0  0  0  0  0  0  0  0  0  0
   -4.9474   -4.6874   27.6038 C   0  0  0  0  0  0  0  0  0  0  0  0
   -4.2702   -4.9774   28.7865 C   0  0  0  0  0  0  0  0  0  0  0  0
   -3.2722   -4.4146   31.2234 Cl  0  0  0  0  0  0  0  0  0  0  0  0
   -1.8624   -4.5915   36.9995 C   0  0  0  0  0  0  0  0  0  0  0  0
   -2.6886   -5.1946   38.1376 C   0  0  0  0  0  0  0  0  0  0  0  0
   -3.5778   -3.0034   38.6539 C   0  0  0  0  0  0  0  0  0  0  0  0
   -2.7510   -2.3999   37.5151 C   0  0  0  0  0  0  0  0  0  0  0  0
   -2.5558   -3.4110   36.4658 N   0  0  0  0  0  0  0  0  0  0  0  0
   -2.8842   -4.1848   39.1872 N   0  0  0  0  0  0  0  0  0  0  0  0
   -3.3826   -4.5725   39.9741 H   0  0  0  0  0  0  0  0  0  0  0  0
    1.4193   -1.8811   34.5817 O   0  0  0  0  0  0  0  0  0  0  0  0
    1.8039   -0.5655   34.9862 C   0  0  0  0  0  0  0  0  0  0  0  0
    3.1983   -0.6115   35.6132 C   0  0  0  0  0  0  0  0  0  0  0  0
    4.2846    0.4297   37.4796 C   0  0  0  0  0  0  0  0  0  0  0  0
    3.2347   -1.6358   36.7748 C   0  0  0  0  0  0  0  0  0  0  0  0
    4.2832    1.5430   35.3243 C   0  0  0  0  0  0  0  0  0  0  0  0
    4.4150   -1.1008   37.6276 C   0  0  0  0  0  0  0  0  0  0  0  0
    3.5225    0.6860   36.2430 N   0  0  0  0  0  0  0  0  0  0  0  0
 12 17  2  0  0  0
 12 13  1  0  0  0
 17 16  1  0  0  0
 13 14  2  0  0  0
 16  6  1  0  0  0
 16 15  2  0  0  0
 11  5  2  0  0  0
 11  6  1  0  0  0
  5  1  1  0  0  0
  6  7  2  0  0  0
 14 15  1  0  0  0
 14 19  1  0  0  0
 35 37  1  0  0  0
 15 18  1  0  0  0
  7  8  1  0  0  0
  7  2  1  0  0  0
  1  2  2  0  0  0
  1  4  1  0  0  0
 24 28  1  0  0  0
 24 23  1  0  0  0
 26 27  1  0  0  0
 26 25  1  0  0  0
 27  4  1  0  0  0
 27 23  1  0  0  0
 19 20  2  0  0  0
  2  9  1  0  0  0
 37 33  1  0  0  0
 37 32  1  0  0  0
  4 10  2  0  0  0
 28 25  1  0  0  0
 33 36  1  0  0  0
  9  3  2  0  0  0
 10  3  1  0  0  0
  3 30  1  0  0  0
 18 22  1  0  0  0
 18 21  2  0  0  0
 20 21  1  0  0  0
 32 31  1  0  0  0
 32 34  1  0  0  0
 31 30  1  0  0  0
 36 34  1  0  0  0
 28 29  1  0  0  0
M  END
> <minimizedAffinity>
-7.21240

$$$$
7IZ - Ideal conformer


 37 42  0  0  0  0  0  0  0  0999 V2000
   -1.6338   -2.9536   34.7757 C   0  0  0  0  0  0  0  0  0  0  0  0
   -1.0384   -2.2152   33.7213 C   0  0  0  0  0  0  0  0  0  0  0  0
    0.5280   -1.4079   35.2068 C   0  0  0  0  0  0  0  0  0  0  0  0
   -1.0605   -2.8591   36.0666 C   0  0  0  0  0  0  0  0  0  0  0  0
   -2.7588   -3.7395   34.5069 C   0  0  0  0  0  0  0  0  0  0  0  0
   -2.7196   -3.1182   32.2695 C   0  0  0  0  0  0  0  0  0  0  0  0
   -1.6056   -2.3081   32.4404 C   0  0  0  0  0  0  0  0  0  0  0  0
   -1.0734   -1.6344   31.3973 F   0  0  0  0  0  0  0  0  0  0  0  0
    0.0355   -1.4600   33.9847 N   0  0  0  0  0  0  0  0  0  0  0  0
    0.0032   -2.0830   36.2236 N   0  0  0  0  0  0  0  0  0  0  0  0
   -3.2554   -3.7885   33.2926 N   0  0  0  0  0  0  0  0  0  0  0  0
   -3.5660   -4.4275   28.8408 C   0  0  0  0  0  0  0  0  0  0  0  0
   -4.4550   -3.5053   28.3755 C   0  0  0  0  0  0  0  0  0  0  0  0
   -4.8147   -2.4079   29.1757 C   0  0  0  0  0  0  0  0  0  0  0  0
   -4.2474   -2.2691   30.4654 C   0  0  0  0  0  0  0  0  0  0  0  0
   -3.3269   -3.2404   30.9259 C   0  0  0  0  0  0  0  0  0  0  0  0
   -2.9994   -4.3058   30.1044 C   0  0  0  0  0  0  0  0  0  0  0  0
   -4.6079   -1.1724   31.2634 C   0  0  0  0  0  0  0  0  0  0  0  0
   -5.7293   -1.4431   28.7186 C   0  0  0  0  0  0  0  0  0  0  0  0
   -6.0566   -0.3915   29.5187 C   0  0  0  0  0  0  0  0  0  0  0  0
   -5.4972   -0.2550   30.7875 C   0  0  0  0  0  0  0  0  0  0  0  0
   -3.9239   -0.9839   32.8478 Cl  0  0  0  0  0  0  0  0  0  0  0  0
   -0.5370   -4.1916   37.9260 C   0  0  0  0  0  0  0  0  0  0  0  0
   -1.1731   -5.0148   39.0483 C   0  0  0  0  0  0  0  0  0  0  0  0
   -3.0595   -3.4987   39.0918 C   0  0  0  0  0  0  0  0  0  0  0  0
   -2.4229   -2.6750   37.9688 C   0  0  0  0  0  0  0  0  0  0  0  0
   -1.5943   -3.5531   37.1300 N   0  0  0  0  0  0  0  0  0  0  0  0
   -2.0015   -4.1379   39.8877 N   0  0  0  0  0  0  0  0  0  0  0  0
   -2.3919   -4.6460   40.6669 H   0  0  0  0  0  0  0  0  0  0  0  0
    1.6148   -0.6339   35.4353 O   0  0  0  0  0  0  0  0  0  0  0  0
    2.8740   -1.1342   34.9811 C   0  0  0  0  0  0  0  0  0  0  0  0
    3.9826   -0.6531   35.9188 C   0  0  0  0  0  0  0  0  0  0  0  0
    4.2222    1.0786   37.5594 C   0  0  0  0  0  0  0  0  0  0  0  0
    3.8240   -1.2981   37.3183 C   0  0  0  0  0  0  0  0  0  0  0  0
    4.7140    1.5599   35.2331 C   0  0  0  0  0  0  0  0  0  0  0  0
    4.5609   -0.2739   38.2208 C   0  0  0  0  0  0  0  0  0  0  0  0
    3.8606    0.8008   36.1566 N   0  0  0  0  0  0  0  0  0  0  0  0
 12 17  2  0  0  0
 12 13  1  0  0  0
 17 16  1  0  0  0
 13 14  2  0  0  0
 16  6  1  0  0  0
 16 15  2  0  0  0
 11  5  2  0  0  0
 11  6  1  0  0  0
  5  1  1  0  0  0
  6  7  2  0  0  0
 14 15  1  0  0  0
 14 19  1  0  0  0
 35 37  1  0  0  0
 15 18  1  0  0  0
  7  8  1  0  0  0
  7  2  1  0  0  0
  1  2  2  0  0  0
  1  4  1  0  0  0
 24 28  1  0  0  0
 24 23  1  0  0  0
 26 27  1  0  0  0
 26 25  1  0  0  0
 27  4  1  0  0  0
 27 23  1  0  0  0
 19 20  2  0  0  0
  2  9  1  0  0  0
 37 33  1  0  0  0
 37 32  1  0  0  0
  4 10  2  0  0  0
 28 25  1  0  0  0
 33 36  1  0  0  0
  9  3  2  0  0  0
 10  3  1  0  0  0
  3 30  1  0  0  0
 18 22  1  0  0  0
 18 21  2  0  0  0
 20 21  1  0  0  0
 32 31  1  0  0  0
 32 34  1  0  0  0
 31 30  1  0  0  0
 36 34  1  0  0  0
 28 29  1  0  0  0
M  END
> <minimizedAffinity>
-7.13424

$$$$
7IZ - Ideal conformer


 37 42  0  0  0  0  0  0  0  0999 V2000
   -3.2475   -0.1557   32.8280 C   0  0  0  0  0  0  0  0  0  0  0  0
   -2.5235   -1.3696   32.7100 C   0  0  0  0  0  0  0  0  0  0  0  0
   -3.6998   -1.8535   30.7880 C   0  0  0  0  0  0  0  0  0  0  0  0
   -4.2178    0.1441   31.8417 C   0  0  0  0  0  0  0  0  0  0  0  0
   -2.9829    0.6936   33.9070 C   0  0  0  0  0  0  0  0  0  0  0  0
   -1.3647   -0.7609   34.7190 C   0  0  0  0  0  0  0  0  0  0  0  0
   -1.5608   -1.6682   33.6872 C   0  0  0  0  0  0  0  0  0  0  0  0
   -0.8347   -2.8056   33.6187 F   0  0  0  0  0  0  0  0  0  0  0  0
   -2.7840   -2.1820   31.6780 N   0  0  0  0  0  0  0  0  0  0  0  0
   -4.4008   -0.7271   30.8588 N   0  0  0  0  0  0  0  0  0  0  0  0
   -2.0764    0.3663   34.7983 N   0  0  0  0  0  0  0  0  0  0  0  0
    1.9289   -0.9205   36.5392 C   0  0  0  0  0  0  0  0  0  0  0  0
    1.6079   -1.5784   37.6888 C   0  0  0  0  0  0  0  0  0  0  0  0
    0.2864   -1.9991   37.9138 C   0  0  0  0  0  0  0  0  0  0  0  0
   -0.7056   -1.7345   36.9388 C   0  0  0  0  0  0  0  0  0  0  0  0
   -0.3471   -1.0494   35.7535 C   0  0  0  0  0  0  0  0  0  0  0  0
    0.9671   -0.6532   35.5717 C   0  0  0  0  0  0  0  0  0  0  0  0
   -2.0250   -2.1554   37.1651 C   0  0  0  0  0  0  0  0  0  0  0  0
   -0.0699   -2.6795   39.0912 C   0  0  0  0  0  0  0  0  0  0  0  0
   -1.3594   -3.0738   39.2784 C   0  0  0  0  0  0  0  0  0  0  0  0
   -2.3349   -2.8138   38.3181 C   0  0  0  0  0  0  0  0  0  0  0  0
   -3.2563   -1.8405   35.9825 Cl  0  0  0  0  0  0  0  0  0  0  0  0
   -4.7765    2.1059   30.6814 C   0  0  0  0  0  0  0  0  0  0  0  0
   -5.5432    3.4228   30.8206 C   0  0  0  0  0  0  0  0  0  0  0  0
   -7.1414    2.3388   32.2799 C   0  0  0  0  0  0  0  0  0  0  0  0
   -6.3741    1.0210   32.1406 C   0  0  0  0  0  0  0  0  0  0  0  0
   -4.9520    1.3079   31.9027 N   0  0  0  0  0  0  0  0  0  0  0  0
   -6.9651    3.1373   31.0582 N   0  0  0  0  0  0  0  0  0  0  0  0
   -7.5030    3.9896   31.1022 H   0  0  0  0  0  0  0  0  0  0  0  0
   -3.9358   -2.6995   29.7579 O   0  0  0  0  0  0  0  0  0  0  0  0
   -4.9847   -3.6546   29.9309 C   0  0  0  0  0  0  0  0  0  0  0  0
   -5.8583   -3.6860   28.6757 C   0  0  0  0  0  0  0  0  0  0  0  0
   -5.8696   -2.5686   26.5546 C   0  0  0  0  0  0  0  0  0  0  0  0
   -5.2593   -4.6538   27.6248 C   0  0  0  0  0  0  0  0  0  0  0  0
   -7.0109   -1.5600   28.4428 C   0  0  0  0  0  0  0  0  0  0  0  0
   -5.8534   -4.0916   26.3065 C   0  0  0  0  0  0  0  0  0  0  0  0
   -5.8581   -2.3634   28.0152 N   0  0  0  0  0  0  0  0  0  0  0  0
 12 17  2  0  0  0
 12 13  1  0  0  0
 17 16  1  0  0  0
 13 14  2  0  0  0
 16  6  1  0  0  0
 16 15  2  0  0  0
 11  5  2  0  0  0
 11  6  1  0  0  0
  5  1  1  0  0  0
  6  7  2  0  0  0
 14 15  1  0  0  0
 14 19  1  0  0  0
 35 37  1  0  0  0
 15 18  1  0  0  0
  7  8  1  0  0  0
  7  2  1  0  0  0
  1  2  2  0  0  0
  1  4  1  0  0  0
 24 28  1  0  0  0
 24 23  1  0  0  0
 26 27  1  0  0  0
 26 25  1  0  0  0
 27  4  1  0  0  0
 27 23  1  0  0  0
 19 20  2  0  0  0
  2  9  1  0  0  0
 37 33  1  0  0  0
 37 32  1  0  0  0
  4 10  2  0  0  0
 28 25  1  0  0  0
 33 36  1  0  0  0
  9  3  2  0  0  0
 10  3  1  0  0  0
  3 30  1  0  0  0
 18 22  1  0  0  0
 18 21  2  0  0  0
 20 21  1  0  0  0
 32 31  1  0  0  0
 32 34  1  0  0  0
 31 30  1  0  0  0
 36 34  1  0  0  0
 28 29  1  0  0  0
M  END
> <minimizedAffinity>
-6.83388

$$$$
7IZ - Ideal conformer


 37 42  0  0  0  0  0  0  0  0999 V2000
   -3.0620   -1.4381   33.1336 C   0  0  0  0  0  0  0  0  0  0  0  0
   -2.8910   -0.3004   33.9630 C   0  0  0  0  0  0  0  0  0  0  0  0
   -4.8706    0.5563   33.1510 C   0  0  0  0  0  0  0  0  0  0  0  0
   -4.2130   -1.5009   32.3118 C   0  0  0  0  0  0  0  0  0  0  0  0
   -2.0946   -2.4476   33.1532 C   0  0  0  0  0  0  0  0  0  0  0  0
   -0.8474   -1.2900   34.7338 C   0  0  0  0  0  0  0  0  0  0  0  0
   -1.7501   -0.2367   34.7787 C   0  0  0  0  0  0  0  0  0  0  0  0
   -1.5418    0.8187   35.5960 F   0  0  0  0  0  0  0  0  0  0  0  0
   -3.8174    0.6661   33.9369 N   0  0  0  0  0  0  0  0  0  0  0  0
   -5.0714   -0.4912   32.3588 N   0  0  0  0  0  0  0  0  0  0  0  0
   -1.0417   -2.3383   33.9297 N   0  0  0  0  0  0  0  0  0  0  0  0
    2.6675   -0.6495   35.9260 C   0  0  0  0  0  0  0  0  0  0  0  0
    2.6550   -1.1560   37.1912 C   0  0  0  0  0  0  0  0  0  0  0  0
    1.4824   -1.7326   37.7073 C   0  0  0  0  0  0  0  0  0  0  0  0
    0.3176   -1.7828   36.9039 C   0  0  0  0  0  0  0  0  0  0  0  0
    0.3560   -1.2497   35.5936 C   0  0  0  0  0  0  0  0  0  0  0  0
    1.5327   -0.6913   35.1241 C   0  0  0  0  0  0  0  0  0  0  0  0
   -0.8529   -2.3590   37.4210 C   0  0  0  0  0  0  0  0  0  0  0  0
    1.4440   -2.2620   39.0090 C   0  0  0  0  0  0  0  0  0  0  0  0
    0.2918   -2.8140   39.4790 C   0  0  0  0  0  0  0  0  0  0  0  0
   -0.8539   -2.8638   38.6875 C   0  0  0  0  0  0  0  0  0  0  0  0
   -2.2919   -2.4301   36.4525 Cl  0  0  0  0  0  0  0  0  0  0  0  0
   -5.8273   -3.0378   31.5774 C   0  0  0  0  0  0  0  0  0  0  0  0
   -6.0119   -4.2829   30.7072 C   0  0  0  0  0  0  0  0  0  0  0  0
   -4.2635   -3.5063   29.2243 C   0  0  0  0  0  0  0  0  0  0  0  0
   -4.0788   -2.2604   30.0951 C   0  0  0  0  0  0  0  0  0  0  0  0
   -4.4339   -2.5805   31.4854 N   0  0  0  0  0  0  0  0  0  0  0  0
   -5.6575   -3.9640   29.3171 N   0  0  0  0  0  0  0  0  0  0  0  0
   -5.8199   -4.7545   28.7117 H   0  0  0  0  0  0  0  0  0  0  0  0
   -5.7865    1.5530   33.1514 O   0  0  0  0  0  0  0  0  0  0  0  0
   -6.6794    1.6132   32.0372 C   0  0  0  0  0  0  0  0  0  0  0  0
   -6.0015    2.3472   30.8790 C   0  0  0  0  0  0  0  0  0  0  0  0
   -6.6345    3.0468   28.6750 C   0  0  0  0  0  0  0  0  0  0  0  0
   -6.3259    3.8609   30.9350 C   0  0  0  0  0  0  0  0  0  0  0  0
   -5.7279    0.8214   29.0082 C   0  0  0  0  0  0  0  0  0  0  0  0
   -6.1281    4.2789   29.4542 C   0  0  0  0  0  0  0  0  0  0  0  0
   -6.5537    1.8897   29.5862 N   0  0  0  0  0  0  0  0  0  0  0  0
 12 17  2  0  0  0
 12 13  1  0  0  0
 17 16  1  0  0  0
 13 14  2  0  0  0
 16  6  1  0  0  0
 16 15  2  0  0  0
 11  5  2  0  0  0
 11  6  1  0  0  0
  5  1  1  0  0  0
  6  7  2  0  0  0
 14 15  1  0  0  0
 14 19  1  0  0  0
 35 37  1  0  0  0
 15 18  1  0  0  0
  7  8  1  0  0  0
  7  2  1  0  0  0
  1  2  2  0  0  0
  1  4  1  0  0  0
 24 28  1  0  0  0
 24 23  1  0  0  0
 26 27  1  0  0  0
 26 25  1  0  0  0
 27  4  1  0  0  0
 27 23  1  0  0  0
 19 20  2  0  0  0
  2  9  1  0  0  0
 37 33  1  0  0  0
 37 32  1  0  0  0
  4 10  2  0  0  0
 28 25  1  0  0  0
 33 36  1  0  0  0
  9  3  2  0  0  0
 10  3  1  0  0  0
  3 30  1  0  0  0
 18 22  1  0  0  0
 18 21  2  0  0  0
 20 21  1  0  0  0
 32 31  1  0  0  0
 32 34  1  0  0  0
 31 30  1  0  0  0
 36 34  1  0  0  0
 28 29  1  0  0  0
M  END
> <minimizedAffinity>
-6.82830

$$$$
7IZ - Ideal conformer


 37 42  0  0  0  0  0  0  0  0999 V2000
   -3.2307   -0.9739   33.3903 C   0  0  0  0  0  0  0  0  0  0  0  0
   -2.9260   -2.3464   33.5771 C   0  0  0  0  0  0  0  0  0  0  0  0
   -4.0277   -2.8312   31.6116 C   0  0  0  0  0  0  0  0  0  0  0  0
   -3.9667   -0.6017   32.2397 C   0  0  0  0  0  0  0  0  0  0  0  0
   -2.8009   -0.0445   34.3427 C   0  0  0  0  0  0  0  0  0  0  0  0
   -1.8082   -1.7224   35.6046 C   0  0  0  0  0  0  0  0  0  0  0  0
   -2.1960   -2.7170   34.7176 C   0  0  0  0  0  0  0  0  0  0  0  0
   -1.8691   -4.0088   34.9405 F   0  0  0  0  0  0  0  0  0  0  0  0
   -3.3442   -3.2332   32.6651 N   0  0  0  0  0  0  0  0  0  0  0  0
   -4.3347   -1.5566   31.3963 N   0  0  0  0  0  0  0  0  0  0  0  0
   -2.1258   -0.4423   35.3959 N   0  0  0  0  0  0  0  0  0  0  0  0
   -0.9477   -2.7482   39.1250 C   0  0  0  0  0  0  0  0  0  0  0  0
    0.4145   -2.7854   39.1051 C   0  0  0  0  0  0  0  0  0  0  0  0
    1.1103   -2.4725   37.9253 C   0  0  0  0  0  0  0  0  0  0  0  0
    0.3860   -2.1194   36.7611 C   0  0  0  0  0  0  0  0  0  0  0  0
   -1.0281   -2.0885   36.8073 C   0  0  0  0  0  0  0  0  0  0  0  0
   -1.6737   -2.4031   37.9909 C   0  0  0  0  0  0  0  0  0  0  0  0
    1.0825   -1.8072   35.5835 C   0  0  0  0  0  0  0  0  0  0  0  0
    2.5149   -2.5034   37.8792 C   0  0  0  0  0  0  0  0  0  0  0  0
    3.1587   -2.1946   36.7201 C   0  0  0  0  0  0  0  0  0  0  0  0
    2.4453   -1.8463   35.5750 C   0  0  0  0  0  0  0  0  0  0  0  0
    0.2134   -1.3721   34.1450 Cl  0  0  0  0  0  0  0  0  0  0  0  0
   -3.5665    1.2371   30.8375 C   0  0  0  0  0  0  0  0  0  0  0  0
   -3.8945    2.7207   30.6565 C   0  0  0  0  0  0  0  0  0  0  0  0
   -6.0718    2.3611   31.6510 C   0  0  0  0  0  0  0  0  0  0  0  0
   -5.7435    0.8765   31.8321 C   0  0  0  0  0  0  0  0  0  0  0  0
   -4.2923    0.7158   32.0040 N   0  0  0  0  0  0  0  0  0  0  0  0
   -5.3450    2.8826   30.4843 N   0  0  0  0  0  0  0  0  0  0  0  0
   -5.5835    3.8474   30.3110 H   0  0  0  0  0  0  0  0  0  0  0  0
   -4.4337   -3.7562   30.7106 O   0  0  0  0  0  0  0  0  0  0  0  0
   -4.1666   -3.4811   29.3339 C   0  0  0  0  0  0  0  0  0  0  0  0
   -5.4646   -3.5858   28.5314 C   0  0  0  0  0  0  0  0  0  0  0  0
   -6.2944   -2.6859   26.4700 C   0  0  0  0  0  0  0  0  0  0  0  0
   -5.3426   -4.6865   27.4482 C   0  0  0  0  0  0  0  0  0  0  0  0
   -6.5841   -1.4296   28.5250 C   0  0  0  0  0  0  0  0  0  0  0  0
   -6.3998   -4.2243   26.4112 C   0  0  0  0  0  0  0  0  0  0  0  0
   -5.7051   -2.3376   27.7766 N   0  0  0  0  0  0  0  0  0  0  0  0
 12 17  2  0  0  0
 12 13  1  0  0  0
 17 16  1  0  0  0
 13 14  2  0  0  0
 16  6  1  0  0  0
 16 15  2  0  0  0
 11  5  2  0  0  0
 11  6  1  0  0  0
  5  1  1  0  0  0
  6  7  2  0  0  0
 14 15  1  0  0  0
 14 19  1  0  0  0
 35 37  1  0  0  0
 15 18  1  0  0  0
  7  8  1  0  0  0
  7  2  1  0  0  0
  1  2  2  0  0  0
  1  4  1  0  0  0
 24 28  1  0  0  0
 24 23  1  0  0  0
 26 27  1  0  0  0
 26 25  1  0  0  0
 27  4  1  0  0  0
 27 23  1  0  0  0
 19 20  2  0  0  0
  2  9  1  0  0  0
 37 33  1  0  0  0
 37 32  1  0  0  0
  4 10  2  0  0  0
 28 25  1  0  0  0
 33 36  1  0  0  0
  9  3  2  0  0  0
 10  3  1  0  0  0
  3 30  1  0  0  0
 18 22  1  0  0  0
 18 21  2  0  0  0
 20 21  1  0  0  0
 32 31  1  0  0  0
 32 34  1  0  0  0
 31 30  1  0  0  0
 36 34  1  0  0  0
 28 29  1  0  0  0
M  END
> <minimizedAffinity>
-6.77962

$$$$
7IZ - Ideal conformer


 37 42  0  0  0  0  0  0  0  0999 V2000
   -3.1215   -1.5379   33.2250 C   0  0  0  0  0  0  0  0  0  0  0  0
   -2.8986   -0.2274   33.7193 C   0  0  0  0  0  0  0  0  0  0  0  0
   -4.1688    0.6126   31.9893 C   0  0  0  0  0  0  0  0  0  0  0  0
   -3.9131   -1.6892   32.0611 C   0  0  0  0  0  0  0  0  0  0  0  0
   -2.5537   -2.6254   33.8962 C   0  0  0  0  0  0  0  0  0  0  0  0
   -1.5966   -1.2152   35.4739 C   0  0  0  0  0  0  0  0  0  0  0  0
   -2.1140   -0.0758   34.8736 C   0  0  0  0  0  0  0  0  0  0  0  0
   -1.8777    1.1484   35.3940 F   0  0  0  0  0  0  0  0  0  0  0  0
   -3.4401    0.8111   33.0702 N   0  0  0  0  0  0  0  0  0  0  0  0
   -4.4040   -0.5967   31.4919 N   0  0  0  0  0  0  0  0  0  0  0  0
   -1.8223   -2.4306   34.9689 N   0  0  0  0  0  0  0  0  0  0  0  0
   -0.6200   -0.8081   39.0887 C   0  0  0  0  0  0  0  0  0  0  0  0
    0.7418   -0.8207   39.0377 C   0  0  0  0  0  0  0  0  0  0  0  0
    1.3989   -0.9646   37.8042 C   0  0  0  0  0  0  0  0  0  0  0  0
    0.6361   -1.0959   36.6185 C   0  0  0  0  0  0  0  0  0  0  0  0
   -0.7767   -1.0802   36.6981 C   0  0  0  0  0  0  0  0  0  0  0  0
   -1.3836   -0.9353   37.9340 C   0  0  0  0  0  0  0  0  0  0  0  0
    1.2941   -1.2397   35.3873 C   0  0  0  0  0  0  0  0  0  0  0  0
    2.8023   -0.9806   37.7251 C   0  0  0  0  0  0  0  0  0  0  0  0
    3.4081   -1.1215   36.5141 C   0  0  0  0  0  0  0  0  0  0  0  0
    2.6568   -1.2498   35.3476 C   0  0  0  0  0  0  0  0  0  0  0  0
    0.3774   -1.4024   33.9220 Cl  0  0  0  0  0  0  0  0  0  0  0  0
   -5.5955   -3.2625   31.6124 C   0  0  0  0  0  0  0  0  0  0  0  0
   -5.8222   -4.6832   31.0909 C   0  0  0  0  0  0  0  0  0  0  0  0
   -3.9085   -4.4517   29.6270 C   0  0  0  0  0  0  0  0  0  0  0  0
   -3.6817   -3.0301   30.1489 C   0  0  0  0  0  0  0  0  0  0  0  0
   -4.1648   -2.9367   31.5342 N   0  0  0  0  0  0  0  0  0  0  0  0
   -5.3399   -4.7777   29.7059 N   0  0  0  0  0  0  0  0  0  0  0  0
   -5.5248   -5.6911   29.3197 H   0  0  0  0  0  0  0  0  0  0  0  0
   -4.7004    1.6865   31.3596 O   0  0  0  0  0  0  0  0  0  0  0  0
   -5.9146    2.2166   31.8953 C   0  0  0  0  0  0  0  0  0  0  0  0
   -6.6702    2.9697   30.7991 C   0  0  0  0  0  0  0  0  0  0  0  0
   -6.0754    4.2101   28.8356 C   0  0  0  0  0  0  0  0  0  0  0  0
   -6.8951    2.0530   29.5708 C   0  0  0  0  0  0  0  0  0  0  0  0
   -6.1914    5.3450   30.9766 C   0  0  0  0  0  0  0  0  0  0  0  0
   -7.0584    3.0918   28.4301 C   0  0  0  0  0  0  0  0  0  0  0  0
   -5.8538    4.0917   30.2891 N   0  0  0  0  0  0  0  0  0  0  0  0
 12 17  2  0  0  0
 12 13  1  0  0  0
 17 16  1  0  0  0
 13 14  2  0  0  0
 16  6  1  0  0  0
 16 15  2  0  0  0
 11  5  2  0  0  0
 11  6  1  0  0  0
  5  1  1  0  0  0
  6  7  2  0  0  0
 14 15  1  0  0  0
 14 19  1  0  0  0
 35 37  1  0  0  0
 15 18  1  0  0  0
  7  8  1  0  0  0
  7  2  1  0  0  0
  1  2  2  0  0  0
  1  4  1  0  0  0
 24 28  1  0  0  0
 24 23  1  0  0  0
 26 27  1  0  0  0
 26 25  1  0  0  0
 27  4  1  0  0  0
 27 23  1  0  0  0
 19 20  2  0  0  0
  2  9  1  0  0  0
 37 33  1  0  0  0
 37 32  1  0  0  0
  4 10  2  0  0  0
 28 25  1  0  0  0
 33 36  1  0  0  0
  9  3  2  0  0  0
 10  3  1  0  0  0
  3 30  1  0  0  0
 18 22  1  0  0  0
 18 21  2  0  0  0
 20 21  1  0  0  0
 32 31  1  0  0  0
 32 34  1  0  0  0
 31 30  1  0  0  0
 36 34  1  0  0  0
 28 29  1  0  0  0
M  END
> <minimizedAffinity>
-6.74515

$$$$
7IZ - Ideal conformer


 37 42  0  0  0  0  0  0  0  0999 V2000
   -2.5400   -3.2387   33.9029 C   0  0  0  0  0  0  0  0  0  0  0  0
   -1.9165   -2.6926   32.7520 C   0  0  0  0  0  0  0  0  0  0  0  0
   -0.2364   -1.8579   34.0908 C   0  0  0  0  0  0  0  0  0  0  0  0
   -1.9183   -3.0404   35.1592 C   0  0  0  0  0  0  0  0  0  0  0  0
   -3.7387   -3.9443   33.7587 C   0  0  0  0  0  0  0  0  0  0  0  0
   -3.7183   -3.6073   31.4610 C   0  0  0  0  0  0  0  0  0  0  0  0
   -2.5318   -2.8885   31.5053 C   0  0  0  0  0  0  0  0  0  0  0  0
   -1.9765   -2.3994   30.3750 F   0  0  0  0  0  0  0  0  0  0  0  0
   -0.7717   -2.0132   32.8957 N   0  0  0  0  0  0  0  0  0  0  0  0
   -0.7852   -2.3525   35.1950 N   0  0  0  0  0  0  0  0  0  0  0  0
   -4.2775   -4.0952   32.5711 N   0  0  0  0  0  0  0  0  0  0  0  0
   -4.7034   -5.1905   28.1885 C   0  0  0  0  0  0  0  0  0  0  0  0
   -5.6060   -4.3036   27.6826 C   0  0  0  0  0  0  0  0  0  0  0  0
   -5.9296   -3.1408   28.4018 C   0  0  0  0  0  0  0  0  0  0  0  0
   -5.3118   -2.8996   29.6528 C   0  0  0  0  0  0  0  0  0  0  0  0
   -4.3781   -3.8361   30.1566 C   0  0  0  0  0  0  0  0  0  0  0  0
   -4.0875   -4.9684   29.4148 C   0  0  0  0  0  0  0  0  0  0  0  0
   -5.6363   -1.7378   30.3699 C   0  0  0  0  0  0  0  0  0  0  0  0
   -6.8573   -2.2106   27.9016 C   0  0  0  0  0  0  0  0  0  0  0  0
   -7.1487   -1.0937   28.6234 C   0  0  0  0  0  0  0  0  0  0  0  0
   -6.5396   -0.8565   29.8539 C   0  0  0  0  0  0  0  0  0  0  0  0
   -4.8902   -1.4235   31.9056 Cl  0  0  0  0  0  0  0  0  0  0  0  0
   -1.4381   -4.0497   37.2226 C   0  0  0  0  0  0  0  0  0  0  0  0
   -2.1004   -4.6736   38.4530 C   0  0  0  0  0  0  0  0  0  0  0  0
   -3.9763   -3.1635   38.2098 C   0  0  0  0  0  0  0  0  0  0  0  0
   -3.3136   -2.5392   36.9786 C   0  0  0  0  0  0  0  0  0  0  0  0
   -2.4762   -3.5471   36.3121 N   0  0  0  0  0  0  0  0  0  0  0  0
   -2.9376   -3.6669   39.1203 N   0  0  0  0  0  0  0  0  0  0  0  0
   -3.3456   -4.0377   39.9651 H   0  0  0  0  0  0  0  0  0  0  0  0
    0.9218   -1.1653   34.1974 O   0  0  0  0  0  0  0  0  0  0  0  0
    1.2118   -0.5789   35.4679 C   0  0  0  0  0  0  0  0  0  0  0  0
    2.6860   -0.8031   35.8089 C   0  0  0  0  0  0  0  0  0  0  0  0
    4.2345    0.0662   37.4194 C   0  0  0  0  0  0  0  0  0  0  0  0
    2.8248   -1.8454   36.9464 C   0  0  0  0  0  0  0  0  0  0  0  0
    3.9459    1.2109   35.3001 C   0  0  0  0  0  0  0  0  0  0  0  0
    4.2051   -1.4713   37.5476 C   0  0  0  0  0  0  0  0  0  0  0  0
    3.2818    0.4345   36.3553 N   0  0  0  0  0  0  0  0  0  0  0  0
 12 17  2  0  0  0
 12 13  1  0  0  0
 17 16  1  0  0  0
 13 14  2  0  0  0
 16  6  1  0  0  0
 16 15  2  0  0  0
 11  5  2  0  0  0
 11  6  1  0  0  0
  5  1  1  0  0  0
  6  7  2  0  0  0
 14 15  1  0  0  0
 14 19  1  0  0  0
 35 37  1  0  0  0
 15 18  1  0  0  0
  7  8  1  0  0  0
  7  2  1  0  0  0
  1  2  2  0  0  0
  1  4  1  0  0  0
 24 28  1  0  0  0
 24 23  1  0  0  0
 26 27  1  0  0  0
 26 25  1  0  0  0
 27  4  1  0  0  0
 27 23  1  0  0  0
 19 20  2  0  0  0
  2  9  1  0  0  0
 37 33  1  0  0  0
 37 32  1  0  0  0
  4 10  2  0  0  0
 28 25  1  0  0  0
 33 36  1  0  0  0
  9  3  2  0  0  0
 10  3  1  0  0  0
  3 30  1  0  0  0
 18 22  1  0  0  0
 18 21  2  0  0  0
 20 21  1  0  0  0
 32 31  1  0  0  0
 32 34  1  0  0  0
 31 30  1  0  0  0
 36 34  1  0  0  0
 28 29  1  0  0  0
M  END
> <minimizedAffinity>
-6.68762

$$$$
